565
  ChemPy            3D                             0

 84 95  0  0  1  0  0  0  0  0999 V2000
   -4.7640 -193.3700  153.0628 C   0  0  0  0  0  0  0  0  0  0  0  0
   -5.4665 -193.8093  152.3548 H   0  0  0  0  0  0  0  0  0  0  0  0
   -3.7453 -193.6147  152.7626 H   0  0  0  0  0  0  0  0  0  0  0  0
   -4.8889 -192.2874  153.0749 H   0  0  0  0  0  0  0  0  0  0  0  0
   -1.0002 -194.4474  152.8406 C   0  0  0  0  0  0  0  0  0  0  0  0
   -9.8598 -196.2197  159.7992 C   0  0  0  0  0  0  0  0  0  0  0  0
  -10.5959 -195.0968  157.7542 C   0  0  0  0  0  0  0  0  0  0  0  0
   -2.4252 -194.1412  153.2437 C   0  0  0  0  0  0  0  0  0  0  0  0
   -8.8174 -195.6928  160.7597 C   0  0  0  0  0  0  0  0  0  0  0  0
   -9.5680 -194.5360  158.7111 C   0  0  0  0  0  0  0  0  0  0  0  0
   -0.7898 -194.0532  151.8421 H   0  0  0  0  0  0  0  0  0  0  0  0
  -10.8620 -196.1198  160.2264 H   0  0  0  0  0  0  0  0  0  0  0  0
  -11.6039 -194.9879  158.1652 H   0  0  0  0  0  0  0  0  0  0  0  0
   -0.2958 -193.9946  153.5457 H   0  0  0  0  0  0  0  0  0  0  0  0
   -9.8297 -195.6637  158.8566 H   0  0  0  0  0  0  0  0  0  0  0  0
  -10.5556 -194.5704  156.7952 H   0  0  0  0  0  0  0  0  0  0  0  0
   -0.8275 -195.5274  152.8277 H   0  0  0  0  0  0  0  0  0  0  0  0
   -9.6827 -197.2767  159.5808 H   0  0  0  0  0  0  0  0  0  0  0  0
  -10.4119 -196.1594  157.5711 H   0  0  0  0  0  0  0  0  0  0  0  0
   -3.1295 -194.5950  152.5388 H   0  0  0  0  0  0  0  0  0  0  0  0
   -8.8473 -196.2496  161.7020 H   0  0  0  0  0  0  0  0  0  0  0  0
   -9.6080 -195.0634  159.6698 H   0  0  0  0  0  0  0  0  0  0  0  0
   -2.5980 -193.0612  153.2567 H   0  0  0  0  0  0  0  0  0  0  0  0
   -8.9946 -194.6357  160.9781 H   0  0  0  0  0  0  0  0  0  0  0  0
   -9.7519 -193.4734  158.8941 H   0  0  0  0  0  0  0  0  0  0  0  0
   -3.5352 -196.2188  158.5071 C   0  0  0  0  0  0  0  0  0  0  0  0
   -2.5152 -196.8553  159.2433 C   0  0  0  0  0  0  0  0  0  0  0  0
   -4.8273 -196.0903  159.0586 C   0  0  0  0  0  0  0  0  0  0  0  0
   -3.2633 -195.7107  157.2196 C   0  0  0  0  0  0  0  0  0  0  0  0
   -2.7872 -197.3634  160.5308 C   0  0  0  0  0  0  0  0  0  0  0  0
   -1.2232 -196.9837  158.6918 C   0  0  0  0  0  0  0  0  0  0  0  0
   -5.1001 -196.5979  160.3456 C   0  0  0  0  0  0  0  0  0  0  0  0
   -1.9719 -195.8386  156.6675 C   0  0  0  0  0  0  0  0  0  0  0  0
   -4.0786 -197.2354  161.0828 C   0  0  0  0  0  0  0  0  0  0  0  0
   -5.8479 -195.4540  158.3234 C   0  0  0  0  0  0  0  0  0  0  0  0
   -4.2824 -195.0740  156.4827 C   0  0  0  0  0  0  0  0  0  0  0  0
   -1.7680 -198.0000  161.2677 C   0  0  0  0  0  0  0  0  0  0  0  0
   -0.2026 -197.6200  159.4270 C   0  0  0  0  0  0  0  0  0  0  0  0
   -5.5754 -194.9456  157.0349 C   0  0  0  0  0  0  0  0  0  0  0  0
   -0.4750 -198.1284  160.7155 C   0  0  0  0  0  0  0  0  0  0  0  0
   -6.3942 -196.4688  160.8969 C   0  0  0  0  0  0  0  0  0  0  0  0
   -1.7006 -195.3295  155.3782 C   0  0  0  0  0  0  0  0  0  0  0  0
   -4.3499 -197.7445  162.3722 C   0  0  0  0  0  0  0  0  0  0  0  0
    0.3437 -196.6053  156.8535 C   0  0  0  0  0  0  0  0  0  0  0  0
   -7.1419 -195.3253  158.8754 C   0  0  0  0  0  0  0  0  0  0  0  0
   -4.0103 -194.5651  155.1932 C   0  0  0  0  0  0  0  0  0  0  0  0
   -2.0401 -198.5089  162.5571 C   0  0  0  0  0  0  0  0  0  0  0  0
    1.0914 -197.7488  158.8750 C   0  0  0  0  0  0  0  0  0  0  0  0
   -6.5969 -194.3082  156.2978 C   0  0  0  0  0  0  0  0  0  0  0  0
    0.5464 -198.7658  161.4526 C   0  0  0  0  0  0  0  0  0  0  0  0
   -7.4067 -195.8334  160.1583 C   0  0  0  0  0  0  0  0  0  0  0  0
   -2.7214 -194.6961  154.6494 C   0  0  0  0  0  0  0  0  0  0  0  0
   -0.4110 -195.4636  154.8405 C   0  0  0  0  0  0  0  0  0  0  0  0
   -5.6395 -197.6105  162.9099 C   0  0  0  0  0  0  0  0  0  0  0  0
   -8.1491 -194.6894  158.1325 C   0  0  0  0  0  0  0  0  0  0  0  0
   -5.0345 -193.9334  154.4703 C   0  0  0  0  0  0  0  0  0  0  0  0
   -1.0160 -199.1407  163.2801 C   0  0  0  0  0  0  0  0  0  0  0  0
    2.0986 -198.3846  159.6179 C   0  0  0  0  0  0  0  0  0  0  0  0
   -7.8790 -194.1854  156.8550 C   0  0  0  0  0  0  0  0  0  0  0  0
   -6.3162 -193.8061  155.0177 C   0  0  0  0  0  0  0  0  0  0  0  0
    1.8286 -198.8887  160.8953 C   0  0  0  0  0  0  0  0  0  0  0  0
   -1.0140 -196.5908  157.6968 H   0  0  0  0  0  0  0  0  0  0  0  0
   -1.1827 -196.3306  157.2361 H   0  0  0  0  0  0  0  0  0  0  0  0
   -0.6540 -196.5070  157.2814 H   0  0  0  0  0  0  0  0  0  0  0  0
    0.9581 -199.7019  163.2366 H   0  0  0  0  0  0  0  0  0  0  0  0
   -3.5137 -198.7238  163.9773 H   0  0  0  0  0  0  0  0  0  0  0  0
    2.2357 -197.3283  157.2172 H   0  0  0  0  0  0  0  0  0  0  0  0
    1.4797 -196.1810  155.1927 H   0  0  0  0  0  0  0  0  0  0  0  0
   -7.5301 -196.8931  162.5577 H   0  0  0  0  0  0  0  0  0  0  0  0
    0.2658 -199.2679  162.7327 O   0  0  0  0  0  0  0  0  0  0  0  0
   -3.3291 -198.3779  163.1010 O   0  0  0  0  0  0  0  0  0  0  0  0
    1.3563 -197.2407  157.5920 O   0  0  0  0  0  0  0  0  0  0  0  0
    0.6017 -196.0955  155.5713 O   0  0  0  0  0  0  0  0  0  0  0  0
   -6.6521 -196.9786  162.1790 O   0  0  0  0  0  0  0  0  0  0  0  0
   -0.1845 -195.0792  153.8532 H   0  0  0  0  0  0  0  0  0  0  0  0
   -5.8660 -197.9948  163.8972 H   0  0  0  0  0  0  0  0  0  0  0  0
   -1.2062 -199.5370  164.2704 H   0  0  0  0  0  0  0  0  0  0  0  0
    3.0969 -198.4926  159.2108 H   0  0  0  0  0  0  0  0  0  0  0  0
   -8.6739 -193.6989  156.3025 H   0  0  0  0  0  0  0  0  0  0  0  0
   -7.0890 -193.3142  154.4388 H   0  0  0  0  0  0  0  0  0  0  0  0
    2.5133 -200.3353  162.6355 C   0  0  0  0  0  0  0  0  0  0  0  0
    2.8777 -199.5307  161.6247 O   0  0  0  0  0  0  0  0  0  0  0  0
    3.3556 -200.9051  163.2879 O   0  0  0  0  0  0  0  0  0  0  0  0
    1.4673 -200.4697  162.8684 H   0  0  0  0  0  0  0  0  0  0  0  0
  1  2  1  0  0  0  0
  1  3  1  0  0  0  0
  1  4  1  0  0  0  0
  5  8  1  0  0  0  0
  5 11  1  0  0  0  0
  5 14  1  0  0  0  0
  5 17  1  0  0  0  0
  6  9  1  0  0  0  0
  6 12  1  0  0  0  0
  6 15  1  0  0  0  0
  6 18  1  0  0  0  0
  7 10  1  0  0  0  0
  7 13  1  0  0  0  0
  7 16  1  0  0  0  0
  7 19  1  0  0  0  0
  8 20  1  0  0  0  0
  8 23  1  0  0  0  0
  9 21  1  0  0  0  0
  9 24  1  0  0  0  0
 10 22  1  0  0  0  0
 10 25  1  0  0  0  0
 26 27  2  0  0  0  0
 26 28  2  0  0  0  0
 26 29  2  0  0  0  0
 27 30  2  0  0  0  0
 27 31  2  0  0  0  0
 28 32  2  0  0  0  0
 28 35  2  0  0  0  0
 29 33  2  0  0  0  0
 29 36  2  0  0  0  0
 30 34  2  0  0  0  0
 30 37  2  0  0  0  0
 31 38  2  0  0  0  0
 31 62  1  0  0  0  0
 32 34  2  0  0  0  0
 32 41  2  0  0  0  0
 33 42  2  0  0  0  0
 33 63  1  0  0  0  0
 34 43  2  0  0  0  0
 35 39  2  0  0  0  0
 35 45  2  0  0  0  0
 36 39  2  0  0  0  0
 36 46  2  0  0  0  0
 37 40  2  0  0  0  0
 37 47  2  0  0  0  0
 38 40  2  0  0  0  0
 38 48  2  0  0  0  0
 39 49  2  0  0  0  0
 40 50  2  0  0  0  0
 41 51  2  0  0  0  0
 41 74  2  0  0  0  0
 42 52  2  0  0  0  0
 42 53  2  0  0  0  0
 43 54  2  0  0  0  0
 43 71  2  0  0  0  0
 44 64  1  0  0  0  0
 44 72  2  0  0  0  0
 44 73  2  0  0  0  0
 45 51  2  0  0  0  0
 45 55  2  0  0  0  0
 46 52  2  0  0  0  0
 46 56  2  0  0  0  0
 47 57  2  0  0  0  0
 47 71  2  0  0  0  0
 48 58  2  0  0  0  0
 48 72  2  0  0  0  0
 49 59  2  0  0  0  0
 49 60  2  0  0  0  0
 50 61  2  0  0  0  0
 50 70  2  0  0  0  0
  9 51  1  0  0  0  0
  8 52  1  0  0  0  0
 53 75  1  0  0  0  0
 54 76  1  0  0  0  0
 10 55  1  0  0  0  0
 55 59  2  0  0  0  0
  1 56  1  0  0  0  0
 56 60  2  0  0  0  0
 57 70  2  0  0  0  0
 57 77  1  0  0  0  0
 58 61  2  0  0  0  0
 58 78  1  0  0  0  0
 59 79  1  0  0  0  0
 60 80  1  0  0  0  0
 61 82  1  0  0  0  0
 65 70  1  0  0  0  0
 66 71  1  0  0  0  0
 67 72  1  0  0  0  0
 53 73  2  0  0  0  0
 68 73  1  0  0  0  0
 54 74  2  0  0  0  0
 69 74  1  0  0  0  0
 81 82  1  0  0  0  0
 81 83  2  0  0  0  0
 81 84  1  0  0  0  0
M  END
$$$$
