9115
  PyMOL2.5          3D                             0

255292  0  0  0  0  0  0  0  0999 V2000
   77.6060  -90.6589  -43.8485 C   0  0  0  0  0  0  0  0  0  0  0  0
   74.2479  -88.9129  -35.8132 C   0  0  0  0  0  0  0  0  0  0  0  0
   93.5499  -84.1259  -62.5199 C   0  0  0  0  0  0  0  0  0  0  0  0
   73.8426  -88.4502  -45.6444 C   0  0  0  0  0  0  0  0  0  0  0  0
   94.2902  -90.2626  -51.3007 C   0  0  0  0  0  0  0  0  0  0  0  0
   86.9963  -86.9450  -64.6152 C   0  0  0  0  0  0  0  0  0  0  0  0
   71.4553  -89.5873  -44.3269 C   0  0  0  0  0  0  0  0  0  0  0  0
   70.2711  -89.1060  -39.1634 C   0  0  0  0  0  0  0  0  0  0  0  0
   70.2351  -89.9422  -41.8710 C   0  0  0  0  0  0  0  0  0  0  0  0
   87.2098  -86.5789  -52.5266 C   0  0  0  0  0  0  0  0  0  0  0  0
   85.0485  -87.7393  -63.3287 C   0  0  0  0  0  0  0  0  0  0  0  0
   93.3968  -83.0864  -62.8093 H   0  0  0  0  0  0  0  0  0  0  0  0
   85.7960  -87.0692  -64.6414 O   0  0  0  0  0  0  0  0  0  0  0  0
   83.8472  -87.8564  -63.3359 O   0  0  0  0  0  0  0  0  0  0  0  0
   69.9597  -91.0973  -41.5661 O   0  0  0  0  0  0  0  0  0  0  0  0
   72.8703  -87.7103  -45.6560 O   0  0  0  0  0  0  0  0  0  0  0  0
   70.2953  -89.2076  -44.4213 O   0  0  0  0  0  0  0  0  0  0  0  0
   76.4044  -90.7485  -43.7781 O   0  0  0  0  0  0  0  0  0  0  0  0
   95.1756  -91.0205  -50.9193 O   0  0  0  0  0  0  0  0  0  0  0  0
   86.0256  -86.8037  -52.4626 O   0  0  0  0  0  0  0  0  0  0  0  0
   69.9592  -88.3479  -39.8895 H   0  0  0  0  0  0  0  0  0  0  0  0
   73.3295  -88.1002  -35.7865 O   0  0  0  0  0  0  0  0  0  0  0  0
   74.3612  -88.7278  -46.5783 H   0  0  0  0  0  0  0  0  0  0  0  0
   93.4267  -90.6498  -51.8604 H   0  0  0  0  0  0  0  0  0  0  0  0
   87.5712  -87.0619  -65.5216 H   0  0  0  0  0  0  0  0  0  0  0  0
   69.4712  -89.2035  -42.1683 H   0  0  0  0  0  0  0  0  0  0  0  0
   85.6092  -87.8688  -64.2423 H   0  0  0  0  0  0  0  0  0  0  0  0
   78.2103  -90.7938  -42.9639 H   0  0  0  0  0  0  0  0  0  0  0  0
   74.7470  -89.1906  -34.8737 H   0  0  0  0  0  0  0  0  0  0  0  0
   71.9380  -90.1309  -45.1550 H   0  0  0  0  0  0  0  0  0  0  0  0
   93.1366  -84.7815  -63.2862 H   0  0  0  0  0  0  0  0  0  0  0  0
   70.0866  -88.6307  -38.1951 H   0  0  0  0  0  0  0  0  0  0  0  0
   87.8047  -86.5567  -51.6258 H   0  0  0  0  0  0  0  0  0  0  0  0
   69.6313  -89.9866  -39.2453 H   0  0  0  0  0  0  0  0  0  0  0  0
   94.6170  -84.3197  -62.4133 H   0  0  0  0  0  0  0  0  0  0  0  0
   89.4254  -82.2078  -53.7264 C   0  0  0  0  0  0  0  0  0  0  0  0
   71.1537  -91.6409  -37.2066 C   0  0  0  0  0  0  0  0  0  0  0  0
   85.8250  -91.5248  -50.9808 C   0  0  0  0  0  0  0  0  0  0  0  0
   97.1501  -82.4275  -46.8300 C   0  0  0  0  0  0  0  0  0  0  0  0
   80.2367  -89.4778  -44.6524 C   0  0  0  0  0  0  0  0  0  0  0  0
   73.9471  -86.6350  -47.0770 C   0  0  0  0  0  0  0  0  0  0  0  0
   90.8451  -82.3999  -54.2398 C   0  0  0  0  0  0  0  0  0  0  0  0
   71.7924  -90.2757  -36.9476 C   0  0  0  0  0  0  0  0  0  0  0  0
   84.9634  -92.3599  -50.0605 C   0  0  0  0  0  0  0  0  0  0  0  0
   78.7259  -89.2642  -44.6596 C   0  0  0  0  0  0  0  0  0  0  0  0
   95.6789  -82.7399  -46.5969 C   0  0  0  0  0  0  0  0  0  0  0  0
   74.6278  -85.9539  -48.2430 C   0  0  0  0  0  0  0  0  0  0  0  0
   88.8941  -81.4811  -54.3493 H   0  0  0  0  0  0  0  0  0  0  0  0
   70.7241  -92.0330  -36.2786 H   0  0  0  0  0  0  0  0  0  0  0  0
   97.6190  -82.1017  -45.8961 H   0  0  0  0  0  0  0  0  0  0  0  0
   86.7519  -92.0526  -51.2240 H   0  0  0  0  0  0  0  0  0  0  0  0
   80.6286  -89.4049  -45.6724 H   0  0  0  0  0  0  0  0  0  0  0  0
   73.0195  -86.1166  -46.8168 H   0  0  0  0  0  0  0  0  0  0  0  0
   88.8655  -83.1489  -53.7521 H   0  0  0  0  0  0  0  0  0  0  0  0
   70.3521  -91.6020  -37.9468 H   0  0  0  0  0  0  0  0  0  0  0  0
   85.2948  -91.3107  -51.9143 H   0  0  0  0  0  0  0  0  0  0  0  0
   80.7453  -88.7190  -44.0487 H   0  0  0  0  0  0  0  0  0  0  0  0
   97.6968  -83.3029  -47.1949 H   0  0  0  0  0  0  0  0  0  0  0  0
   73.7038  -87.6727  -47.3269 H   0  0  0  0  0  0  0  0  0  0  0  0
   89.4141  -81.8407  -52.6952 H   0  0  0  0  0  0  0  0  0  0  0  0
   71.9009  -92.3591  -37.5616 H   0  0  0  0  0  0  0  0  0  0  0  0
   80.4986  -90.4676  -44.2643 H   0  0  0  0  0  0  0  0  0  0  0  0
   86.0848  -90.5737  -50.5069 H   0  0  0  0  0  0  0  0  0  0  0  0
   74.5986  -86.6365  -46.1983 H   0  0  0  0  0  0  0  0  0  0  0  0
   97.2717  -81.6265  -47.5672 H   0  0  0  0  0  0  0  0  0  0  0  0
   91.3786  -81.4436  -54.2690 H   0  0  0  0  0  0  0  0  0  0  0  0
   72.4868  -90.4604  -36.1271 H   0  0  0  0  0  0  0  0  0  0  0  0
   78.3035  -90.0079  -45.3472 H   0  0  0  0  0  0  0  0  0  0  0  0
   85.4938  -92.5731  -49.1266 H   0  0  0  0  0  0  0  0  0  0  0  0
   74.8717  -84.9164  -47.9923 H   0  0  0  0  0  0  0  0  0  0  0  0
   95.1851  -81.8457  -46.1950 H   0  0  0  0  0  0  0  0  0  0  0  0
   90.8030  -82.7285  -55.2863 H   0  0  0  0  0  0  0  0  0  0  0  0
   71.0551  -89.5641  -36.5638 H   0  0  0  0  0  0  0  0  0  0  0  0
   78.5382  -88.2675  -45.0780 H   0  0  0  0  0  0  0  0  0  0  0  0
   84.7036  -93.3109  -50.5343 H   0  0  0  0  0  0  0  0  0  0  0  0
   73.9763  -85.9525  -49.1216 H   0  0  0  0  0  0  0  0  0  0  0  0
   95.5638  -83.4976  -45.8142 H   0  0  0  0  0  0  0  0  0  0  0  0
   92.9879  -85.4499  -51.9881 C   0  0  0  0  0  0  0  0  0  0  0  0
   88.9948  -85.9633  -58.6285 C   0  0  0  0  0  0  0  0  0  0  0  0
   79.5169  -88.6872  -49.6135 C   0  0  0  0  0  0  0  0  0  0  0  0
   75.9695  -89.6180  -39.5782 C   0  0  0  0  0  0  0  0  0  0  0  0
   93.6634  -86.4858  -51.2806 C   0  0  0  0  0  0  0  0  0  0  0  0
   87.6965  -86.5114  -58.5889 C   0  0  0  0  0  0  0  0  0  0  0  0
   80.1484  -88.4263  -50.8466 C   0  0  0  0  0  0  0  0  0  0  0  0
   74.5504  -89.5594  -39.5034 C   0  0  0  0  0  0  0  0  0  0  0  0
   92.9679  -84.1203  -51.4963 C   0  0  0  0  0  0  0  0  0  0  0  0
   76.6101  -89.5492  -40.8441 C   0  0  0  0  0  0  0  0  0  0  0  0
   89.6224  -85.7262  -59.8694 C   0  0  0  0  0  0  0  0  0  0  0  0
   80.0813  -89.6170  -48.7152 C   0  0  0  0  0  0  0  0  0  0  0  0
   94.3310  -86.1573  -50.0690 C   0  0  0  0  0  0  0  0  0  0  0  0
   73.7762  -89.4655  -40.7065 C   0  0  0  0  0  0  0  0  0  0  0  0
   89.6656  -85.6523  -57.4271 C   0  0  0  0  0  0  0  0  0  0  0  0
   78.3209  -88.0184  -49.2786 C   0  0  0  0  0  0  0  0  0  0  0  0
   93.6426  -83.8197  -50.2845 C   0  0  0  0  0  0  0  0  0  0  0  0
   75.8638  -89.3966  -42.0353 C   0  0  0  0  0  0  0  0  0  0  0  0
   87.0258  -86.8224  -59.7903 C   0  0  0  0  0  0  0  0  0  0  0  0
   81.3444  -89.0952  -51.1815 C   0  0  0  0  0  0  0  0  0  0  0  0
   94.3287  -84.8283  -49.5663 C   0  0  0  0  0  0  0  0  0  0  0  0
   74.4352  -89.3609  -41.9807 C   0  0  0  0  0  0  0  0  0  0  0  0
   87.0690  -86.7485  -57.3480 C   0  0  0  0  0  0  0  0  0  0  0  0
   79.5840  -87.4966  -51.7449 C   0  0  0  0  0  0  0  0  0  0  0  0
   92.3212  -85.7409  -53.1967 C   0  0  0  0  0  0  0  0  0  0  0  0
   76.7610  -89.7532  -38.3967 C   0  0  0  0  0  0  0  0  0  0  0  0
   88.9527  -86.0368  -61.0709 C   0  0  0  0  0  0  0  0  0  0  0  0
   81.2769  -90.2861  -49.0491 C   0  0  0  0  0  0  0  0  0  0  0  0
   93.6732  -87.8238  -51.7768 C   0  0  0  0  0  0  0  0  0  0  0  0
   73.9237  -89.5979  -38.2293 C   0  0  0  0  0  0  0  0  0  0  0  0
   89.0389  -85.8889  -56.1861 C   0  0  0  0  0  0  0  0  0  0  0  0
   77.7559  -87.0887  -50.1760 C   0  0  0  0  0  0  0  0  0  0  0  0
   92.2801  -83.0960  -52.2094 C   0  0  0  0  0  0  0  0  0  0  0  0
   78.0221  -89.6195  -40.9195 C   0  0  0  0  0  0  0  0  0  0  0  0
   87.6524  -86.5858  -61.0313 C   0  0  0  0  0  0  0  0  0  0  0  0
   81.9094  -90.0248  -50.2841 C   0  0  0  0  0  0  0  0  0  0  0  0
   95.0112  -87.1627  -49.3504 C   0  0  0  0  0  0  0  0  0  0  0  0
   72.3566  -89.4526  -40.6309 C   0  0  0  0  0  0  0  0  0  0  0  0
   78.3884  -86.8275  -51.4110 C   0  0  0  0  0  0  0  0  0  0  0  0
   93.6328  -82.4994  -49.7879 C   0  0  0  0  0  0  0  0  0  0  0  0
   76.5647  -89.2799  -43.2732 C   0  0  0  0  0  0  0  0  0  0  0  0
   90.9205  -85.1782  -59.9100 C   0  0  0  0  0  0  0  0  0  0  0  0
   79.4507  -89.8785  -47.4820 C   0  0  0  0  0  0  0  0  0  0  0  0
   95.0061  -84.5093  -48.3537 C   0  0  0  0  0  0  0  0  0  0  0  0
   73.6876  -89.2142  -43.1892 C   0  0  0  0  0  0  0  0  0  0  0  0
   90.9637  -85.1042  -57.4654 C   0  0  0  0  0  0  0  0  0  0  0  0
   77.6886  -88.2784  -48.0459 C   0  0  0  0  0  0  0  0  0  0  0  0
   91.6429  -84.7354  -53.8887 C   0  0  0  0  0  0  0  0  0  0  0  0
   78.1615  -89.8163  -38.5300 C   0  0  0  0  0  0  0  0  0  0  0  0
   85.7277  -87.3705  -59.7520 C   0  0  0  0  0  0  0  0  0  0  0  0
   81.9767  -88.8352  -52.4142 C   0  0  0  0  0  0  0  0  0  0  0  0
   93.0460  -88.0346  -53.0321 C   0  0  0  0  0  0  0  0  0  0  0  0
   74.7634  -89.5200  -37.0774 C   0  0  0  0  0  0  0  0  0  0  0  0
   85.7709  -87.2965  -57.3074 C   0  0  0  0  0  0  0  0  0  0  0  0
   80.2146  -87.2350  -52.9781 C   0  0  0  0  0  0  0  0  0  0  0  0
   92.3524  -87.0321  -53.7101 C   0  0  0  0  0  0  0  0  0  0  0  0
   76.1431  -89.7857  -37.1270 C   0  0  0  0  0  0  0  0  0  0  0  0
   91.5915  -84.8671  -58.7076 C   0  0  0  0  0  0  0  0  0  0  0  0
   78.2537  -89.2090  -47.1471 C   0  0  0  0  0  0  0  0  0  0  0  0
   95.6811  -86.8492  -48.1691 C   0  0  0  0  0  0  0  0  0  0  0  0
   71.6432  -89.4953  -41.8595 C   0  0  0  0  0  0  0  0  0  0  0  0
   85.0999  -87.6077  -58.5098 C   0  0  0  0  0  0  0  0  0  0  0  0
   94.2981  -82.1940  -48.5989 C   0  0  0  0  0  0  0  0  0  0  0  0
   75.8161  -89.0335  -44.4214 C   0  0  0  0  0  0  0  0  0  0  0  0
   89.5820  -85.7990  -62.3129 C   0  0  0  0  0  0  0  0  0  0  0  0
   81.8412  -91.2168  -48.1489 C   0  0  0  0  0  0  0  0  0  0  0  0
   92.2917  -81.7951  -51.6735 C   0  0  0  0  0  0  0  0  0  0  0  0
   78.6829  -89.5412  -42.1431 C   0  0  0  0  0  0  0  0  0  0  0  0
   89.7114  -85.5772  -54.9837 C   0  0  0  0  0  0  0  0  0  0  0  0
   76.5583  -86.4195  -49.8398 C   0  0  0  0  0  0  0  0  0  0  0  0
   95.6790  -85.5454  -47.6819 C   0  0  0  0  0  0  0  0  0  0  0  0
   72.2772  -89.3687  -43.1044 C   0  0  0  0  0  0  0  0  0  0  0  0
   86.9800  -86.8976  -62.2337 C   0  0  0  0  0  0  0  0  0  0  0  0
   83.1070  -90.6941  -50.6203 C   0  0  0  0  0  0  0  0  0  0  0  0
   92.9569  -81.5004  -50.4863 C   0  0  0  0  0  0  0  0  0  0  0  0
   77.9817  -89.3688  -43.3345 C   0  0  0  0  0  0  0  0  0  0  0  0
   87.1094  -86.6756  -54.9045 C   0  0  0  0  0  0  0  0  0  0  0  0
   77.8241  -85.8967  -52.3112 C   0  0  0  0  0  0  0  0  0  0  0  0
   91.6158  -83.4152  -53.4191 C   0  0  0  0  0  0  0  0  0  0  0  0
   78.7819  -89.7579  -39.7676 C   0  0  0  0  0  0  0  0  0  0  0  0
   91.5492  -84.9407  -61.1526 C   0  0  0  0  0  0  0  0  0  0  0  0
   80.0157  -90.8096  -46.5822 C   0  0  0  0  0  0  0  0  0  0  0  0
   94.9805  -83.1775  -47.8690 C   0  0  0  0  0  0  0  0  0  0  0  0
   74.4252  -88.9557  -44.3800 C   0  0  0  0  0  0  0  0  0  0  0  0
   91.6357  -84.7926  -56.2625 C   0  0  0  0  0  0  0  0  0  0  0  0
   76.4909  -87.6088  -47.7103 C   0  0  0  0  0  0  0  0  0  0  0  0
   94.3249  -88.8139  -50.9889 C   0  0  0  0  0  0  0  0  0  0  0  0
   72.5045  -89.7115  -38.1839 C   0  0  0  0  0  0  0  0  0  0  0  0
   85.0558  -87.6821  -60.9549 C   0  0  0  0  0  0  0  0  0  0  0  0
   83.1744  -89.5048  -52.7498 C   0  0  0  0  0  0  0  0  0  0  0  0
   95.0011  -88.4752  -49.8121 C   0  0  0  0  0  0  0  0  0  0  0  0
   71.7399  -89.4505  -39.3425 C   0  0  0  0  0  0  0  0  0  0  0  0
   85.1422  -87.5340  -56.0648 C   0  0  0  0  0  0  0  0  0  0  0  0
   79.6496  -86.3040  -53.8779 C   0  0  0  0  0  0  0  0  0  0  0  0
   92.8916  -84.3182  -58.7472 C   0  0  0  0  0  0  0  0  0  0  0  0
   77.6214  -89.4702  -45.9123 C   0  0  0  0  0  0  0  0  0  0  0  0
   83.7998  -88.1565  -58.4702 C   0  0  0  0  0  0  0  0  0  0  0  0
   82.0439  -87.6433  -54.5478 C   0  0  0  0  0  0  0  0  0  0  0  0
   90.8761  -85.2526  -62.3459 C   0  0  0  0  0  0  0  0  0  0  0  0
   91.0053  -85.0311  -55.0296 C   0  0  0  0  0  0  0  0  0  0  0  0
   75.9335  -86.6837  -48.6092 C   0  0  0  0  0  0  0  0  0  0  0  0
   85.6861  -87.4436  -62.1878 C   0  0  0  0  0  0  0  0  0  0  0  0
   83.7318  -90.4298  -51.8509 C   0  0  0  0  0  0  0  0  0  0  0  0
   85.8154  -87.2221  -54.8715 C   0  0  0  0  0  0  0  0  0  0  0  0
   87.7874  -86.3618  -53.7161 C   0  0  0  0  0  0  0  0  0  0  0  0
   76.6336  -85.2377  -51.9663 C   0  0  0  0  0  0  0  0  0  0  0  0
   89.0762  -85.8177  -53.7553 C   0  0  0  0  0  0  0  0  0  0  0  0
   76.0066  -85.4966  -50.7421 C   0  0  0  0  0  0  0  0  0  0  0  0
   88.9040  -86.1129  -63.5013 C   0  0  0  0  0  0  0  0  0  0  0  0
   83.0317  -91.8759  -48.4938 C   0  0  0  0  0  0  0  0  0  0  0  0
   87.6151  -86.6570  -63.4621 C   0  0  0  0  0  0  0  0  0  0  0  0
   83.6587  -91.6169  -49.7180 C   0  0  0  0  0  0  0  0  0  0  0  0
   92.8421  -84.3946  -61.1788 C   0  0  0  0  0  0  0  0  0  0  0  0
   79.3774  -91.0607  -45.3575 C   0  0  0  0  0  0  0  0  0  0  0  0
   75.8716  -87.8772  -46.4794 C   0  0  0  0  0  0  0  0  0  0  0  0
   83.7633  -88.2274  -60.9023 C   0  0  0  0  0  0  0  0  0  0  0  0
   83.8493  -88.0801  -56.0386 C   0  0  0  0  0  0  0  0  0  0  0  0
   80.2879  -86.0529  -55.1026 C   0  0  0  0  0  0  0  0  0  0  0  0
   78.1907  -90.3969  -45.0254 C   0  0  0  0  0  0  0  0  0  0  0  0
   93.5075  -84.0860  -59.9867 C   0  0  0  0  0  0  0  0  0  0  0  0
   76.4318  -88.7996  -45.5884 C   0  0  0  0  0  0  0  0  0  0  0  0
   93.5505  -84.0122  -57.5464 C   0  0  0  0  0  0  0  0  0  0  0  0
   83.2335  -88.3139  -54.8717 C   0  0  0  0  0  0  0  0  0  0  0  0
   81.4746  -86.7167  -55.4347 C   0  0  0  0  0  0  0  0  0  0  0  0
   83.1840  -88.3886  -57.2308 C   0  0  0  0  0  0  0  0  0  0  0  0
   83.1409  -88.4625  -59.6710 O   0  0  0  0  0  0  0  0  0  0  0  0
   92.9281  -84.2473  -56.3152 O   0  0  0  0  0  0  0  0  0  0  0  0
   78.4581  -85.6409  -53.5387 O   0  0  0  0  0  0  0  0  0  0  0  0
   81.2072  -91.4727  -46.9214 O   0  0  0  0  0  0  0  0  0  0  0  0
   83.7937  -89.2364  -53.9807 O   0  0  0  0  0  0  0  0  0  0  0  0
   78.8171  -89.8799  -37.6669 H   0  0  0  0  0  0  0  0  0  0  0  0
   91.8509  -87.2674  -54.6470 H   0  0  0  0  0  0  0  0  0  0  0  0
   96.2197  -85.3598  -46.7576 H   0  0  0  0  0  0  0  0  0  0  0  0
   94.2886  -81.1698  -48.2280 H   0  0  0  0  0  0  0  0  0  0  0  0
   79.8683  -89.8021  -39.8102 H   0  0  0  0  0  0  0  0  0  0  0  0
   92.9373  -80.4780  -50.1151 H   0  0  0  0  0  0  0  0  0  0  0  0
   96.2123  -87.6161  -47.6083 H   0  0  0  0  0  0  0  0  0  0  0  0
   79.7688  -89.6024  -42.1511 H   0  0  0  0  0  0  0  0  0  0  0  0
   91.7786  -80.9762  -52.1707 H   0  0  0  0  0  0  0  0  0  0  0  0
   95.5034  -89.2561  -49.2404 H   0  0  0  0  0  0  0  0  0  0  0  0
   84.6514  -90.9438  -52.1088 H   0  0  0  0  0  0  0  0  0  0  0  0
   75.0887  -84.9739  -50.5012 H   0  0  0  0  0  0  0  0  0  0  0  0
   89.5767  -85.5849  -52.8230 H   0  0  0  0  0  0  0  0  0  0  0  0
   83.4790  -92.5930  -47.8159 H   0  0  0  0  0  0  0  0  0  0  0  0
   79.7961  -91.7714  -44.6549 H   0  0  0  0  0  0  0  0  0  0  0  0
   74.9525  -87.3731  -46.2051 H   0  0  0  0  0  0  0  0  0  0  0  0
   83.2327  -88.4726  -61.8146 H   0  0  0  0  0  0  0  0  0  0  0  0
   79.8692  -85.3421  -55.8052 H   0  0  0  0  0  0  0  0  0  0  0  0
   94.5047  -83.6654  -60.0344 H   0  0  0  0  0  0  0  0  0  0  0  0
   94.5485  -83.5905  -57.5594 H   0  0  0  0  0  0  0  0  0  0  0  0
   81.9473  -86.5048  -56.3863 H   0  0  0  0  0  0  0  0  0  0  0  0
   81.7410  -90.1471  -56.5863 C   0  0  0  0  0  0  0  0  0  0  0  0
   88.7092  -85.5732  -65.7949 C   0  0  0  0  0  0  0  0  0  0  0  0
   90.7179  -84.7004  -64.6393 C   0  0  0  0  0  0  0  0  0  0  0  0
   85.9531  -87.4101  -52.5188 C   0  0  0  0  0  0  0  0  0  0  0  0
   74.7780  -83.9206  -52.6082 C   0  0  0  0  0  0  0  0  0  0  0  0
   94.0475  -89.3572  -54.6509 C   0  0  0  0  0  0  0  0  0  0  0  0
   76.9236  -89.8396  -35.9420 N   0  0  0  0  0  0  0  0  0  0  0  0
   81.8676  -88.9438  -57.1677 O   0  0  0  0  0  0  0  0  0  0  0  0
   89.5204  -85.8811  -64.7707 O   0  0  0  0  0  0  0  0  0  0  0  0
   91.5128  -85.0120  -63.6035 O   0  0  0  0  0  0  0  0  0  0  0  0
   85.1786  -87.4627  -53.6139 O   0  0  0  0  0  0  0  0  0  0  0  0
   93.0804  -89.2826  -53.6672 O   0  0  0  0  0  0  0  0  0  0  0  0
   76.0432  -84.2912  -52.8611 O   0  0  0  0  0  0  0  0  0  0  0  0
   80.6533  -90.6666  -56.5037 O   0  0  0  0  0  0  0  0  0  0  0  0
   89.1725  -85.3666  -66.8915 O   0  0  0  0  0  0  0  0  0  0  0  0
   91.1987  -84.4863  -65.7269 O   0  0  0  0  0  0  0  0  0  0  0  0
   85.4712  -87.6048  -51.4281 O   0  0  0  0  0  0  0  0  0  0  0  0
   74.2263  -83.1238  -53.3296 O   0  0  0  0  0  0  0  0  0  0  0  0
   94.1914  -90.3277  -55.3789 O   0  0  0  0  0  0  0  0  0  0  0  0
   82.6120  -90.6528  -56.1964 H   0  0  0  0  0  0  0  0  0  0  0  0
   87.6420  -85.5146  -65.6397 H   0  0  0  0  0  0  0  0  0  0  0  0
   89.6481  -84.6456  -64.5016 H   0  0  0  0  0  0  0  0  0  0  0  0
   94.6751  -88.4527  -54.7074 H   0  0  0  0  0  0  0  0  0  0  0  0
   87.0079  -87.1982  -52.6131 H   0  0  0  0  0  0  0  0  0  0  0  0
   74.2518  -84.3382  -51.7625 H   0  0  0  0  0  0  0  0  0  0  0  0
   76.4404  -90.2365  -35.1413 H   0  0  0  0  0  0  0  0  0  0  0  0
   77.8053  -90.3290  -36.0564 H   0  0  0  0  0  0  0  0  0  0  0  0
  1 18  2  0  0  0  0
  1 28  1  0  0  0  0
  2 22  2  0  0  0  0
  2 29  1  0  0  0  0
  3 12  1  0  0  0  0
  3 31  1  0  0  0  0
  3 35  1  0  0  0  0
  4 16  2  0  0  0  0
  4 23  1  0  0  0  0
  5 19  2  0  0  0  0
  5 24  1  0  0  0  0
  6 13  2  0  0  0  0
  6 25  1  0  0  0  0
  7 17  2  0  0  0  0
  7 30  1  0  0  0  0
  8 21  1  0  0  0  0
  8 32  1  0  0  0  0
  8 34  1  0  0  0  0
  9 15  2  0  0  0  0
  9 26  1  0  0  0  0
 10 20  2  0  0  0  0
 10 33  1  0  0  0  0
 11 14  2  0  0  0  0
 11 27  1  0  0  0  0
 36 42  1  0  0  0  0
 36 48  1  0  0  0  0
 36 54  1  0  0  0  0
 36 60  1  0  0  0  0
 37 43  1  0  0  0  0
 37 49  1  0  0  0  0
 37 55  1  0  0  0  0
 37 61  1  0  0  0  0
 38 44  1  0  0  0  0
 38 51  1  0  0  0  0
 38 56  1  0  0  0  0
 38 63  1  0  0  0  0
 39 46  1  0  0  0  0
 39 50  1  0  0  0  0
 39 58  1  0  0  0  0
 39 65  1  0  0  0  0
 40 45  1  0  0  0  0
 40 52  1  0  0  0  0
 40 57  1  0  0  0  0
 40 62  1  0  0  0  0
 41 47  1  0  0  0  0
 41 53  1  0  0  0  0
 41 59  1  0  0  0  0
 41 64  1  0  0  0  0
 42 66  1  0  0  0  0
 42 72  1  0  0  0  0
 43 67  1  0  0  0  0
 43 73  1  0  0  0  0
 44 69  1  0  0  0  0
 44 75  1  0  0  0  0
 45 68  1  0  0  0  0
 45 74  1  0  0  0  0
 46 71  1  0  0  0  0
 46 77  1  0  0  0  0
 47 70  1  0  0  0  0
 47 76  1  0  0  0  0
 78 82  1  0  0  0  0
 78 86  1  0  0  0  0
 78102  2  0  0  0  0
 79 83  2  0  0  0  0
 79 88  2  0  0  0  0
 79 92  2  0  0  0  0
 80 84  2  0  0  0  0
 80 89  2  0  0  0  0
 80 93  2  0  0  0  0
 81 85  1  0  0  0  0
 81 87  1  0  0  0  0
 81103  2  0  0  0  0
 82 90  1  0  0  0  0
 82106  2  0  0  0  0
 83 96  2  0  0  0  0
 83100  2  0  0  0  0
 84 97  2  0  0  0  0
 84101  2  0  0  0  0
 85 91  1  0  0  0  0
 85107  2  0  0  0  0
 86 94  1  0  0  0  0
 86110  2  0  0  0  0
 87 95  1  0  0  0  0
 87111  2  0  0  0  0
 88104  2  0  0  0  0
 88119  2  0  0  0  0
 89105  2  0  0  0  0
 89120  2  0  0  0  0
 90 98  1  0  0  0  0
 90114  2  0  0  0  0
 91 99  1  0  0  0  0
 91115  2  0  0  0  0
 92108  2  0  0  0  0
 92123  2  0  0  0  0
 93109  2  0  0  0  0
 93124  2  0  0  0  0
 94 98  1  0  0  0  0
 94117  2  0  0  0  0
 95 99  1  0  0  0  0
 95118  2  0  0  0  0
 96112  2  0  0  0  0
 96127  2  0  0  0  0
 97113  2  0  0  0  0
 97128  2  0  0  0  0
 98121  2  0  0  0  0
 99122  2  0  0  0  0
100131  2  0  0  0  0
101116  2  0  0  0  0
101132  2  0  0  0  0
102125  1  0  0  0  0
102133  1  0  0  0  0
103126  1  0  0  0  0
103134  1  0  0  0  0
104112  2  0  0  0  0
104142  2  0  0  0  0
105113  2  0  0  0  0
105143  2  0  0  0  0
106129  1  0  0  0  0
106164  1  0  0  0  0
107130  1  0  0  0  0
107165  1  0  0  0  0
108146  2  0  0  0  0
109116  2  0  0  0  0
109147  2  0  0  0  0
110144  1  0  0  0  0
110156  1  0  0  0  0
111145  1  0  0  0  0
111157  1  0  0  0  0
112150  2  0  0  0  0
113151  2  0  0  0  0
114137  1  0  0  0  0
114168  1  0  0  0  0
115138  1  0  0  0  0
115169  1  0  0  0  0
116155  2  0  0  0  0
117140  1  0  0  0  0
117152  1  0  0  0  0
118141  1  0  0  0  0
118153  1  0  0  0  0
119135  2  0  0  0  0
119158  2  0  0  0  0
120136  2  0  0  0  0
120159  2  0  0  0  0
121148  1  0  0  0  0
121160  1  0  0  0  0
122149  1  0  0  0  0
122161  1  0  0  0  0
123135  2  0  0  0  0
123162  2  0  0  0  0
124136  2  0  0  0  0
124163  2  0  0  0  0
125156  2  0  0  0  0
125177  1  0  0  0  0
126157  2  0  0  0  0
126208  1  0  0  0  0
127139  2  0  0  0  0
127166  2  0  0  0  0
128167  2  0  0  0  0
129133  2  0  0  0  0
129240  1  0  0  0  0
  2130  1  0  0  0  0
130134  2  0  0  0  0
131139  2  0  0  0  0
131170  2  0  0  0  0
132171  2  0  0  0  0
133209  1  0  0  0  0
134235  1  0  0  0  0
135172  2  0  0  0  0
136173  2  0  0  0  0
137148  2  0  0  0  0
137214  1  0  0  0  0
  9138  1  0  0  0  0
138149  2  0  0  0  0
139174  2  0  0  0  0
140160  2  0  0  0  0
140211  1  0  0  0  0
141161  2  0  0  0  0
142176  2  0  0  0  0
142186  2  0  0  0  0
143187  2  0  0  0  0
143206  2  0  0  0  0
144152  2  0  0  0  0
144216  1  0  0  0  0
145153  2  0  0  0  0
145215  1  0  0  0  0
146177  2  0  0  0  0
146184  2  0  0  0  0
147178  2  0  0  0  0
147185  2  0  0  0  0
148210  1  0  0  0  0
  7149  1  0  0  0  0
150179  2  0  0  0  0
150188  2  0  0  0  0
151180  2  0  0  0  0
151189  2  0  0  0  0
152213  1  0  0  0  0
 45153  1  0  0  0  0
154181  2  0  0  0  0
154182  2  0  0  0  0
155183  2  0  0  0  0
155205  2  0  0  0  0
 42156  1  0  0  0  0
157212  1  0  0  0  0
158176  2  0  0  0  0
158190  2  0  0  0  0
159191  2  0  0  0  0
159206  2  0  0  0  0
 46160  1  0  0  0  0
  4161  1  0  0  0  0
162177  2  0  0  0  0
162204  2  0  0  0  0
163178  2  0  0  0  0
163192  2  0  0  0  0
  5164  1  0  0  0  0
164168  2  0  0  0  0
 43165  1  0  0  0  0
165169  2  0  0  0  0
166179  2  0  0  0  0
166193  2  0  0  0  0
167180  2  0  0  0  0
167207  2  0  0  0  0
168217  1  0  0  0  0
  8169  1  0  0  0  0
170181  2  0  0  0  0
170194  2  0  0  0  0
171195  2  0  0  0  0
171205  2  0  0  0  0
172197  2  0  0  0  0
172199  2  0  0  0  0
173196  2  0  0  0  0
173198  2  0  0  0  0
174202  2  0  0  0  0
174203  2  0  0  0  0
175200  2  0  0  0  0
175201  2  0  0  0  0
176238  1  0  0  0  0
 47178  1  0  0  0  0
 11179  1  0  0  0  0
180218  1  0  0  0  0
181239  1  0  0  0  0
 10182  1  0  0  0  0
182184  2  0  0  0  0
183185  2  0  0  0  0
183241  1  0  0  0  0
184220  1  0  0  0  0
185219  1  0  0  0  0
186188  2  0  0  0  0
186237  1  0  0  0  0
187189  2  0  0  0  0
187221  1  0  0  0  0
  6188  1  0  0  0  0
 44189  1  0  0  0  0
  3190  1  0  0  0  0
190197  2  0  0  0  0
191196  2  0  0  0  0
191222  1  0  0  0  0
192198  2  0  0  0  0
192223  1  0  0  0  0
193203  2  0  0  0  0
193224  1  0  0  0  0
194200  1  0  0  0  0
194202  2  0  0  0  0
195201  2  0  0  0  0
195225  1  0  0  0  0
  1196  1  0  0  0  0
197226  1  0  0  0  0
141198  1  0  0  0  0
199227  1  0  0  0  0
201228  1  0  0  0  0
202236  1  0  0  0  0
199204  2  0  0  0  0
200207  2  0  0  0  0
229236  1  0  0  0  0
229242  2  0  0  0  0
229248  1  0  0  0  0
230237  1  0  0  0  0
230243  2  0  0  0  0
230249  1  0  0  0  0
231238  1  0  0  0  0
231244  2  0  0  0  0
231250  1  0  0  0  0
232239  1  0  0  0  0
232245  2  0  0  0  0
232252  1  0  0  0  0
233241  1  0  0  0  0
233246  2  0  0  0  0
233253  1  0  0  0  0
234240  1  0  0  0  0
234247  2  0  0  0  0
234251  1  0  0  0  0
235254  1  0  0  0  0
235255  1  0  0  0  0
M  END
